*Heading
** Job name: hexContact_cae Model name: doubleContactModel
** Generated by: Abaqus/CAE 2017
*Preprint, echo=NO, model=NO, history=NO, contact=NO
**
** PARTS
**
*Part, name=SqrSheet
*Node
      1,         -50.,         -50.,           1.
      2,         -50.,        -47.5,           1.
      3,         -50.,  -45.0880737,           1.
      4,         -50.,  -42.7611237,           1.
      5,         -50.,  -40.5161476,           1.
      6,         -50.,  -38.3502655,           1.
      7,         -50.,  -36.2606888,           1.
      8,         -50.,  -34.2447243,           1.
      9,         -50.,  -32.2997856,           1.
     10,         -50.,  -30.4233665,           1.
     11,         -50.,  -28.6130524,           1.
     12,         -50.,   -26.866518,           1.
     13,         -50.,  -25.1815128,           1.
     14,         -50.,   -23.555872,           1.
     15,         -50.,  -21.9875011,           1.
     16,         -50.,  -20.4743843,           1.
     17,         -50.,   -19.014576,           1.
     18,         -50.,  -17.6061954,           1.
     19,         -50.,  -16.2474327,           1.
     20,         -50.,  -14.9365396,           1.
** ... 19024 like lines cut
*Element, type=C3D8R
    1,   277,   278,   347,   346,     1,     2,    71,    70
    2,   278,   279,   348,   347,     2,     3,    72,    71
    3,   279,   280,   349,   348,     3,     4,    73,    72
    4,   280,   281,   350,   349,     4,     5,    74,    73
    5,   281,   282,   351,   350,     5,     6,    75,    74
    6,   282,   283,   352,   351,     6,     7,    76,    75
    7,   283,   284,   353,   352,     7,     8,    77,    76
    8,   284,   285,   354,   353,     8,     9,    78,    77
    9,   285,   286,   355,   354,     9,    10,    79,    78
   10,   286,   287,   356,   355,    10,    11,    80,    79
   11,   287,   288,   357,   356,    11,    12,    81,    80
   12,   288,   289,   358,   357,    12,    13,    82,    81
   13,   289,   290,   359,   358,    13,    14,    83,    82
   14,   290,   291,   360,   359,    14,    15,    84,    83
   15,   291,   292,   361,   360,    15,    16,    85,    84
   16,   292,   293,   362,   361,    16,    17,    86,    85
   17,   293,   294,   363,   362,    17,    18,    87,    86
   18,   294,   295,   364,   363,    18,    19,    88,    87
   19,   295,   296,   365,   364,    19,    20,    89,    88
   20,   296,   297,   366,   365,    20,    21,    90,    89
** ... 13852 like lines cut
*Nset, nset=allSheet_set, generate
     1,  19044,      1
*Elset, elset=allSheet_set, generate
     1,  13872,      1
*Nset, nset=TopBotEdgeSeeds-1
     1,     2,     3,     4,     5,     6,     7,     8,     9,    10,    11,    12,    13,    14,    15,    16
    17,    18,    19,    20,    21,    22,    23,    24,    25,    26,    27,    28,    29,    30,    31,    32
    33,    34,    35,    36,    37,    38,    39,    40,    41,    42,    43,    44,    45,    46,    47,    48
    49,    50,    51,    52,    53,    54,    55,    56,    57,    58,    59,    60,    61,    62,    63,    64
    65,    66,    67,    68,    69,   208,   209,   210,   211,   212,   213,   214,   215,   216,   217,   218
   219,   220,   221,   222,   223,   224,   225,   226,   227,   228,   229,   230,   231,   232,   233,   234
   235,   236,   237,   238,   239,   240,   241,   242,   243,   244,   245,   246,   247,   248,   249,   250
   251,   252,   253,   254,   255,   256,   257,   258,   259,   260,   261,   262,   263,   264,   265,   266
   267,   268,   269,   270,   271,   272,   273,   274,   275,   276,   277,   345,   484,   552,   553,   621
   760,   828,   829,   897,  1036,  1104,  1105,  1173,  1312,  1380,  1381,  1449,  1588,  1656,  1657,  1725
  1864,  1932,  1933,  2001,  2140,  2208,  2209,  2277,  2416,  2484,  2485,  2553,  2692,  2760,  2761,  2829
  2968,  3036,  3037,  3105,  3244,  3312,  3313,  3381,  3520,  3588,  3589,  3657,  3796,  3864,  3865,  3933
  4072,  4140,  4141,  4209,  4348,  4416,  4417,  4485,  4624,  4692,  4693,  4761,  4900,  4968,  4969,  5037
  5176,  5244,  5245,  5313,  5452,  5520,  5521,  5589,  5728,  5796,  5797,  5865,  6004,  6072,  6073,  6141
  6280,  6348,  6349,  6417,  6556,  6624,  6625,  6693,  6832,  6900,  6901,  6969,  7108,  7176,  7177,  7245
  7384,  7452,  7453,  7521,  7660,  7728,  7729,  7797,  7936,  8004,  8005,  8073,  8212,  8280,  8281,  8349
  8488,  8556,  8557,  8625,  8764,  8832,  8833,  8901,  9040,  9108,  9109,  9177,  9316,  9384,  9385,  9453
  9592,  9660,  9661,  9729,  9868,  9936,  9937, 10005, 10144, 10212, 10213, 10281, 10420, 10488, 10489, 10557
 10696, 10764, 10765, 10833, 10972, 11040, 11041, 11109, 11248, 11316, 11317, 11385, 11524, 11592, 11593, 11661
 11800, 11868, 11869, 11937, 12076, 12144, 12145, 12213, 12352, 12420, 12421, 12489, 12628, 12696, 12697, 12765
** ... 14 like lines cut
*Elset, elset=TopBotEdgeSeeds-1
     1,     2,     3,     4,     5,     6,     7,     8,     9,    10,    11,    12,    13,    14,    15,    16
    17,    18,    19,    20,    21,    22,    23,    24,    25,    26,    27,    28,    29,    30,    31,    32
    33,    34,    35,    36,    37,    38,    39,    40,    41,    42,    43,    44,    45,    46,    47,    48
    49,    50,    51,    52,    53,    54,    55,    56,    57,    58,    59,    60,    61,    62,    63,    64
    65,    66,    67,    68,   137,   138,   139,   140,   141,   142,   143,   144,   145,   146,   147,   148
   149,   150,   151,   152,   153,   154,   155,   156,   157,   158,   159,   160,   161,   162,   163,   164
   165,   166,   167,   168,   169,   170,   171,   172,   173,   174,   175,   176,   177,   178,   179,   180
   181,   182,   183,   184,   185,   186,   187,   188,   189,   190,   191,   192,   193,   194,   195,   196
   197,   198,   199,   200,   201,   202,   203,   204,   205,   272,   341,   408,   409,   476,   545,   612
   613,   680,   749,   816,   817,   884,   953,  1020,  1021,  1088,  1157,  1224,  1225,  1292,  1361,  1428
  1429,  1496,  1565,  1632,  1633,  1700,  1769,  1836,  1837,  1904,  1973,  2040,  2041,  2108,  2177,  2244
  2245,  2312,  2381,  2448,  2449,  2516,  2585,  2652,  2653,  2720,  2789,  2856,  2857,  2924,  2993,  3060
  3061,  3128,  3197,  3264,  3265,  3332,  3401,  3468,  3469,  3536,  3605,  3672,  3673,  3740,  3809,  3876
  3877,  3944,  4013,  4080,  4081,  4148,  4217,  4284,  4285,  4352,  4421,  4488,  4489,  4556,  4625,  4692
  4693,  4760,  4829,  4896,  4897,  4964,  5033,  5100,  5101,  5168,  5237,  5304,  5305,  5372,  5441,  5508
  5509,  5576,  5645,  5712,  5713,  5780,  5849,  5916,  5917,  5984,  6053,  6120,  6121,  6188,  6257,  6324
  6325,  6392,  6461,  6528,  6529,  6596,  6665,  6732,  6733,  6800,  6869,  6936,  6937,  7004,  7073,  7140
  7141,  7208,  7277,  7344,  7345,  7412,  7481,  7548,  7549,  7616,  7685,  7752,  7753,  7820,  7889,  7956
  7957,  8024,  8093,  8160,  8161,  8228,  8297,  8364,  8365,  8432,  8501,  8568,  8569,  8636,  8705,  8772
  8773,  8840,  8909,  8976,  8977,  9044,  9113,  9180,  9181,  9248,  9317,  9384,  9385,  9452,  9521,  9588
** ... 14 like lines cut
** Section: alumSect
*Solid Section, elset=allSheet_set, material=aluminum_J2
,
*End Part
**  
*Part, name=rod1
*Node
      1,          -8.,           0.,           0.
      2,           0.,          -8.,           0.
      3,           0.,         -10.,           0.
      4,         -10.,           0.,           0.
      5,           8.,           0.,           0.
      6,          10.,           0.,           0.
      7,           0.,           8.,           0.
      8,   8.32050323,   5.54700184,           0.
      9,           0.,          10.,           0.
     10,   8.32050323,   5.54700184,           2.
     11,          10.,           0.,           2.
     12,           0.,         -10.,           2.
     13,         -10.,           0.,           2.
     14,           0.,          10.,           2.
     15,           0.,         -7.5,          0.5
     16,         -7.5,           0.,          0.5
     17,          7.5,           0.,          0.5
     18,           0.,          7.5,          0.5
     19,          7.5,           0.,           2.
     20,           0.,         -7.5,           2.
** ... 4936 like lines cut
*Element, type=C3D10M
   1,  561,  533,  562,  534,  801,  800,  799,  803,  802,  804
   2,  563,   90,  564,  219,  807,  806,  805,  809,  808,  810
   3,  563,  565,  331,    7,  813,  812,  811,  815,  814,  816
   4,  563,  565,    7,  566,  813,  814,  815,  818,  817,  819
   5,  563,  567,  517,  568,  822,  821,  820,  824,  823,  825
   6,  563,  564,  568,  517,  805,  826,  824,  820,  827,  825
   7,  569,  570,  571,  572,  830,  829,  828,  832,  831,  833
   8,  569,  573,  107,  108,  836,  835,  834,  838,  837,  839
   9,  569,  108,  574,  573,  838,  841,  840,  836,  837,  842
  10,  569,  570,  573,  574,  830,  843,  836,  840,  844,  842
  11,  575,  576,  577,  578,  847,  846,  845,  849,  848,  850
  12,  578,  520,  577,  579,  852,  851,  850,  854,  853,  855
  13,  578,  106,  580,  105,  858,  857,  856,  860,  859,  861
  14,  581,  582,  514,  583,  864,  863,  862,  866,  865,  867
  15,  514,  583,  584,  581,  867,  869,  868,  862,  866,  870
  16,  585,  586,  328,  581,  873,  872,  871,  875,  874,  876
  17,  581,  587,  586,   88,  878,  877,  874,  880,  879,  881
  18,  581,  586,  328,   88,  874,  872,  876,  880,  881,  882
  19,  588,  589,  590,  591,  885,  884,  883,  887,  886,  888
  20,  589,  510,  591,  588,  890,  889,  886,  885,  891,  887
** ... 2780 like lines cut
*Nset, nset=allRod1_set, generate
    1,  4956,     1
*Elset, elset=allRod1_set, generate
    1,  2800,     1
** Section: steelSect
*Solid Section, elset=allRod1_set, material=steel_J2
,
*End Part
**  
*Part, name=rod2
*Node
      1,           0.,           0.,           0.
      2,           0.,          -5.,           0.
      3,          -5.,           0.,           0.
      4,           5.,           0.,           0.
      5,           0.,           5.,           0.
      6,   3.96311998,   3.04855371,           0.
      7,           0.,          -1.,           0.
      8,           0.,          -2.,           0.
      9,           0.,          -3.,           0.
     10,           0.,          -4.,           0.
     11, -0.975451589,  -4.90392637,           0.
     12,  -1.91341722,  -4.61939764,           0.
     13,   -2.7778511,  -4.15734816,           0.
     14,  -3.53553391,  -3.53553391,           0.
     15,  -4.15734816,   -2.7778511,           0.
     16,  -4.61939764,  -1.91341722,           0.
     17,  -4.90392637, -0.975451589,           0.
     18,          -4.,           0.,           0.
     19,          -3.,           0.,           0.
     20,          -2.,           0.,           0.
** ... 432 like lines cut
*Element, type=C3D8I
  1, 124, 125, 166, 169,  11,  12,  53,  56
  2, 125, 126, 163, 166,  12,  13,  50,  53
  3, 123, 169, 170, 122,  10,  56,  57,   9
  4, 165, 173, 178, 164,  52,  60,  65,  51
  5, 173, 165, 176, 168,  60,  52,  63,  55
  6, 128, 129, 165, 164,  15,  16,  52,  51
  7, 165, 129, 130, 176,  52,  16,  17,  63
  8, 130, 116, 131, 176,  17,   3,  18,  63
  9, 169, 123, 115, 124,  56,  10,   2,  11
 10, 172, 170, 169, 166,  59,  57,  56,  53
 11, 172, 178, 173, 175,  59,  65,  60,  62
 12, 170, 172, 175, 171,  57,  59,  62,  58
 13, 122, 170, 171, 121,   9,  57,  58,   8
 14, 175, 174, 177, 171,  62,  61,  64,  58
 15, 134, 114, 120, 177,  21,   1,   7,  64
 16, 167, 163, 126, 127,  54,  50,  13,  14
 17, 164, 167, 127, 128,  51,  54,  14,  15
 18, 174, 168, 132, 133,  61,  55,  19,  20
 19, 178, 172, 166, 163,  65,  59,  53,  50
 20, 133, 134, 177, 174,  20,  21,  64,  61
** ... 268 like lines cut
*Nset, nset=allRod2_set, generate
   1,  452,    1
*Elset, elset=allRod2_set, generate
   1,  288,    1
*Nset, nset=_PickedSet15, internal, generate
 340,  452,    1
*Elset, elset=_PickedSet15, internal, generate
 193,  288,    1
*Elset, elset=BottomUpElements1, generate
   1,  288,    1
** Section: steelSect
*Solid Section, elset=allRod2_set, material=steel_J2
,
*End Part
**  
**
** ASSEMBLY
**
*Assembly, name=Assembly
**  
*Instance, name=SqrSheet-1, part=SqrSheet
*End Instance
**  
*Instance, name=rod1-1, part=rod1
          0.,           0.,          1.1
*End Instance
**  
*Instance, name=rod2-1, part=rod2
          0.,           0.,         -2.1
*End Instance
**  
*Elset, elset=allSheet_ElSet, instance=SqrSheet-1, generate
     1,  13872,      1
*Nset, nset=allSheet_NSet, instance=SqrSheet-1, generate
     1,  19044,      1
*Nset, nset=fixedCentBackRod2Node, instance=rod2-1
 1,
*Nset, nset=rod1Back, instance=rod1-1
   10,   11,   12,   13,   14,   19,   20,   21,   22,  130,  131,  132,  133,  134,  135,  136
  137,  138,  139,  140,  141,  142,  143,  144,  145,  146,  147,  148,  149,  150,  151,  152
  153,  154,  155,  156,  157,  158,  159,  160,  161,  162,  163,  164,  165,  166,  167,  168
  169,  170,  171,  172,  173,  174,  175,  176,  177,  178,  179,  180,  233,  234,  235,  236
  237,  238,  239,  240,  241,  242,  243,  244,  245,  246,  247,  248,  249,  250,  251,  252
  253,  254,  255,  256,  257,  258,  259,  260,  261,  262,  263,  264,  265,  266,  267,  268
  269,  270,  271,  272,  273,  274,  275,  276,  277,  278,  279,  280,  281,  282,  283,  284
  285,  286,  287,  288,  289,  290,  291,  292,  401,  402,  403,  404,  405,  406,  407,  408
  409,  410,  411,  412,  413,  414,  415,  416,  417,  418,  419,  420,  421,  422,  423,  424
  425,  426,  427,  428,  429,  430,  431,  432,  433,  434,  435,  436,  437,  438,  439,  440
  441,  442,  443,  444,  445,  446,  447,  448,  449,  450,  451,  452,  453,  454,  455,  456
  457,  458,  459,  460,  461,  462,  463,  464,  465,  466,  467,  468,  469,  470,  471,  472
  473,  474,  475,  476,  477,  478,  479,  480,  481,  482,  483,  484,  485,  486,  487,  488
  489,  490,  491,  492,  493,  494,  495,  496,  497,  498,  499,  500,  501,  502,  503,  504
  949, 1111, 1113, 1114, 1164, 1165, 1166, 1167, 1168, 1205, 1229, 1241, 1249, 1251, 1253, 1259
 1260, 1301, 1325, 1328, 1379, 1391, 1393, 1394, 1423, 1443, 1444, 1457, 1513, 1537, 1541, 1542
 1583, 1585, 1586, 1603, 1626, 1633, 1635, 1642, 1644, 1681, 1683, 1684, 1702, 1710, 1728, 1729
 1730, 1732, 1733, 1755, 1757, 1759, 1802, 1805, 1806, 1808, 1819, 1825, 1827, 1829, 1847, 1883
 1894, 1900, 1903, 1904, 1914, 1945, 1946, 1948, 1957, 1970, 1971, 1984, 1992, 1996, 2004, 2022
 2035, 2036, 2038, 2039, 2053, 2061, 2068, 2089, 2098, 2099, 2100, 2139, 2141, 2142, 2165, 2175
** ... 29 like lines cut
*Elset, elset=rod1Back, instance=rod1-1
   76,   89,   90,  107,  110,  147,  187,  200,  213,  227,  238,  240,  246,  261,  265,  285
  295,  301,  329,  350,  365,  404,  405,  418,  449,  455,  468,  497,  498,  507,  563,  608
  647,  665,  685,  694,  703,  707,  708,  719,  723,  725,  728,  735,  754,  761,  788,  815
  841,  847,  853,  854,  887,  888,  914,  931,  938,  946,  947,  960,  966,  974,  975,  989
  991, 1008, 1045, 1052, 1074, 1101, 1131, 1159, 1187, 1201, 1230, 1258, 1269, 1303, 1309, 1317
 1339, 1349, 1354, 1367, 1376, 1390, 1396, 1404, 1407, 1410, 1422, 1429, 1432, 1436, 1441, 1445
 1448, 1449, 1453, 1457, 1460, 1465, 1471, 1475, 1477, 1492, 1498, 1500, 1507, 1514, 1518, 1534
 1546, 1549, 1559, 1561, 1570, 1582, 1589, 1595, 1608, 1614, 1615, 1616, 1618, 1622, 1623, 1633
 1634, 1636, 1638, 1648, 1662, 1663, 1668, 1672, 1676, 1680, 1681, 1698, 1701, 1706, 1713, 1718
 1723, 1744, 1747, 1751, 1759, 1763, 1794, 1798, 1816, 1821, 1822, 1826, 1828, 1837, 1838, 1844
 1846, 1848, 1855, 1859, 1863, 1871, 1873, 1878, 1882, 1884, 1887, 1896, 1898, 1899, 1903, 1907
 1910, 1911, 1915, 1919, 1922, 1928, 1929, 1935, 1938, 1941, 1944, 1954, 1961, 1963, 1968, 1971
 1974, 1977, 1978, 1979, 1982, 1984, 1985, 1986, 1988, 2002, 2011, 2014, 2024, 2029, 2030, 2033
 2052, 2055, 2057, 2067, 2073, 2077, 2079, 2080, 2087, 2099, 2100, 2103, 2105, 2111, 2114, 2115
 2116, 2117, 2119, 2121, 2127, 2129, 2140, 2142, 2144, 2149, 2155, 2158, 2160, 2162, 2164, 2169
 2170, 2171, 2174, 2181, 2182, 2185, 2187, 2188, 2189, 2191, 2193, 2194, 2201, 2204, 2206, 2208
 2209, 2211, 2217, 2221, 2225, 2231, 2233, 2240, 2248, 2249, 2256, 2268, 2274, 2275, 2276, 2278
 2287, 2297, 2307, 2311, 2316, 2317, 2319, 2322, 2323, 2324, 2345, 2349, 2367, 2373, 2376, 2394
 2395, 2396, 2414, 2416, 2422, 2427, 2430, 2431, 2436, 2449, 2451, 2455, 2487, 2489, 2494, 2504
 2506, 2514, 2521, 2526, 2534, 2540, 2553, 2556, 2574, 2578, 2581, 2582, 2588, 2598, 2599, 2614
 2650, 2665, 2666, 2671, 2675, 2689, 2697, 2710, 2727, 2728, 2747, 2761, 2771, 2783, 2787, 2796
*Nset, nset=rod1Back_NSet, instance=rod1-1
   10,   11,   12,   13,   14,   19,   20,   21,   22,  130,  131,  132,  133,  134,  135,  136
  137,  138,  139,  140,  141,  142,  143,  144,  145,  146,  147,  148,  149,  150,  151,  152
  153,  154,  155,  156,  157,  158,  159,  160,  161,  162,  163,  164,  165,  166,  167,  168
  169,  170,  171,  172,  173,  174,  175,  176,  177,  178,  179,  180,  233,  234,  235,  236
  237,  238,  239,  240,  241,  242,  243,  244,  245,  246,  247,  248,  249,  250,  251,  252
  253,  254,  255,  256,  257,  258,  259,  260,  261,  262,  263,  264,  265,  266,  267,  268
  269,  270,  271,  272,  273,  274,  275,  276,  277,  278,  279,  280,  281,  282,  283,  284
  285,  286,  287,  288,  289,  290,  291,  292,  401,  402,  403,  404,  405,  406,  407,  408
  409,  410,  411,  412,  413,  414,  415,  416,  417,  418,  419,  420,  421,  422,  423,  424
  425,  426,  427,  428,  429,  430,  431,  432,  433,  434,  435,  436,  437,  438,  439,  440
  441,  442,  443,  444,  445,  446,  447,  448,  449,  450,  451,  452,  453,  454,  455,  456
  457,  458,  459,  460,  461,  462,  463,  464,  465,  466,  467,  468,  469,  470,  471,  472
  473,  474,  475,  476,  477,  478,  479,  480,  481,  482,  483,  484,  485,  486,  487,  488
  489,  490,  491,  492,  493,  494,  495,  496,  497,  498,  499,  500,  501,  502,  503,  504
  949, 1111, 1113, 1114, 1164, 1165, 1166, 1167, 1168, 1205, 1229, 1241, 1249, 1251, 1253, 1259
 1260, 1301, 1325, 1328, 1379, 1391, 1393, 1394, 1423, 1443, 1444, 1457, 1513, 1537, 1541, 1542
 1583, 1585, 1586, 1603, 1626, 1633, 1635, 1642, 1644, 1681, 1683, 1684, 1702, 1710, 1728, 1729
 1730, 1732, 1733, 1755, 1757, 1759, 1802, 1805, 1806, 1808, 1819, 1825, 1827, 1829, 1847, 1883
 1894, 1900, 1903, 1904, 1914, 1945, 1946, 1948, 1957, 1970, 1971, 1984, 1992, 1996, 2004, 2022
 2035, 2036, 2038, 2039, 2053, 2061, 2068, 2089, 2098, 2099, 2100, 2139, 2141, 2142, 2165, 2175
** ... 29 like lines cut
*Elset, elset=rod1_ElSet, instance=rod1-1, generate
    1,  2800,     1
*Nset, nset=rod2Back, instance=rod2-1, generate
   1,  113,    1
*Elset, elset=rod2Back, instance=rod2-1, generate
  1,  96,   1
*Nset, nset=rod2Back_NSet, instance=rod2-1, generate
   1,  113,    1
*Elset, elset=rod2_ElSet, instance=rod2-1, generate
   1,  288,    1
*Nset, nset=rod12Backs_NSet, instance=rod1-1
   10,   11,   12,   13,   14,   19,   20,   21,   22,  130,  131,  132,  133,  134,  135,  136
  137,  138,  139,  140,  141,  142,  143,  144,  145,  146,  147,  148,  149,  150,  151,  152
  153,  154,  155,  156,  157,  158,  159,  160,  161,  162,  163,  164,  165,  166,  167,  168
  169,  170,  171,  172,  173,  174,  175,  176,  177,  178,  179,  180,  233,  234,  235,  236
  237,  238,  239,  240,  241,  242,  243,  244,  245,  246,  247,  248,  249,  250,  251,  252
  253,  254,  255,  256,  257,  258,  259,  260,  261,  262,  263,  264,  265,  266,  267,  268
  269,  270,  271,  272,  273,  274,  275,  276,  277,  278,  279,  280,  281,  282,  283,  284
  285,  286,  287,  288,  289,  290,  291,  292,  401,  402,  403,  404,  405,  406,  407,  408
  409,  410,  411,  412,  413,  414,  415,  416,  417,  418,  419,  420,  421,  422,  423,  424
  425,  426,  427,  428,  429,  430,  431,  432,  433,  434,  435,  436,  437,  438,  439,  440
  441,  442,  443,  444,  445,  446,  447,  448,  449,  450,  451,  452,  453,  454,  455,  456
  457,  458,  459,  460,  461,  462,  463,  464,  465,  466,  467,  468,  469,  470,  471,  472
  473,  474,  475,  476,  477,  478,  479,  480,  481,  482,  483,  484,  485,  486,  487,  488
  489,  490,  491,  492,  493,  494,  495,  496,  497,  498,  499,  500,  501,  502,  503,  504
  949, 1111, 1113, 1114, 1164, 1165, 1166, 1167, 1168, 1205, 1229, 1241, 1249, 1251, 1253, 1259
 1260, 1301, 1325, 1328, 1379, 1391, 1393, 1394, 1423, 1443, 1444, 1457, 1513, 1537, 1541, 1542
 1583, 1585, 1586, 1603, 1626, 1633, 1635, 1642, 1644, 1681, 1683, 1684, 1702, 1710, 1728, 1729
 1730, 1732, 1733, 1755, 1757, 1759, 1802, 1805, 1806, 1808, 1819, 1825, 1827, 1829, 1847, 1883
 1894, 1900, 1903, 1904, 1914, 1945, 1946, 1948, 1957, 1970, 1971, 1984, 1992, 1996, 2004, 2022
 2035, 2036, 2038, 2039, 2053, 2061, 2068, 2089, 2098, 2099, 2100, 2139, 2141, 2142, 2165, 2175
** ... 29 like lines cut
*Nset, nset=rod12Backs_NSet, instance=rod2-1, generate
   1,  113,    1
*Elset, elset=rods12_ElSet, instance=rod1-1, generate
    1,  2800,     1
*Elset, elset=rods12_ElSet, instance=rod2-1, generate
   1,  288,    1
*Elset, elset=sheetBot_ElSet, instance=SqrSheet-1
   137,   138,   139,   140,   141,   142,   143,   144,   145,   146,   147,   148,   149,   150,   151,   152
   153,   154,   155,   156,   157,   158,   159,   160,   161,   162,   163,   164,   165,   166,   167,   168
   169,   170,   171,   172,   173,   174,   175,   176,   177,   178,   179,   180,   181,   182,   183,   184
   185,   186,   187,   188,   189,   190,   191,   192,   193,   194,   195,   196,   197,   198,   199,   200
   201,   202,   203,   204,   341,   342,   343,   344,   345,   346,   347,   348,   349,   350,   351,   352
   353,   354,   355,   356,   357,   358,   359,   360,   361,   362,   363,   364,   365,   366,   367,   368
   369,   370,   371,   372,   373,   374,   375,   376,   377,   378,   379,   380,   381,   382,   383,   384
   385,   386,   387,   388,   389,   390,   391,   392,   393,   394,   395,   396,   397,   398,   399,   400
   401,   402,   403,   404,   405,   406,   407,   408,   545,   546,   547,   548,   549,   550,   551,   552
   553,   554,   555,   556,   557,   558,   559,   560,   561,   562,   563,   564,   565,   566,   567,   568
   569,   570,   571,   572,   573,   574,   575,   576,   577,   578,   579,   580,   581,   582,   583,   584
   585,   586,   587,   588,   589,   590,   591,   592,   593,   594,   595,   596,   597,   598,   599,   600
   601,   602,   603,   604,   605,   606,   607,   608,   609,   610,   611,   612,   749,   750,   751,   752
   753,   754,   755,   756,   757,   758,   759,   760,   761,   762,   763,   764,   765,   766,   767,   768
   769,   770,   771,   772,   773,   774,   775,   776,   777,   778,   779,   780,   781,   782,   783,   784
   785,   786,   787,   788,   789,   790,   791,   792,   793,   794,   795,   796,   797,   798,   799,   800
   801,   802,   803,   804,   805,   806,   807,   808,   809,   810,   811,   812,   813,   814,   815,   816
   953,   954,   955,   956,   957,   958,   959,   960,   961,   962,   963,   964,   965,   966,   967,   968
   969,   970,   971,   972,   973,   974,   975,   976,   977,   978,   979,   980,   981,   982,   983,   984
   985,   986,   987,   988,   989,   990,   991,   992,   993,   994,   995,   996,   997,   998,   999,  1000
** ... 269 like lines cut
*Nset, nset=sheetBot_NSet, instance=SqrSheet-1
   208,   209,   210,   211,   212,   213,   214,   215,   216,   217,   218,   219,   220,   221,   222,   223
   224,   225,   226,   227,   228,   229,   230,   231,   232,   233,   234,   235,   236,   237,   238,   239
   240,   241,   242,   243,   244,   245,   246,   247,   248,   249,   250,   251,   252,   253,   254,   255
   256,   257,   258,   259,   260,   261,   262,   263,   264,   265,   266,   267,   268,   269,   270,   271
   272,   273,   274,   275,   276,   484,   485,   486,   487,   488,   489,   490,   491,   492,   493,   494
   495,   496,   497,   498,   499,   500,   501,   502,   503,   504,   505,   506,   507,   508,   509,   510
   511,   512,   513,   514,   515,   516,   517,   518,   519,   520,   521,   522,   523,   524,   525,   526
   527,   528,   529,   530,   531,   532,   533,   534,   535,   536,   537,   538,   539,   540,   541,   542
   543,   544,   545,   546,   547,   548,   549,   550,   551,   552,   760,   761,   762,   763,   764,   765
   766,   767,   768,   769,   770,   771,   772,   773,   774,   775,   776,   777,   778,   779,   780,   781
   782,   783,   784,   785,   786,   787,   788,   789,   790,   791,   792,   793,   794,   795,   796,   797
   798,   799,   800,   801,   802,   803,   804,   805,   806,   807,   808,   809,   810,   811,   812,   813
   814,   815,   816,   817,   818,   819,   820,   821,   822,   823,   824,   825,   826,   827,   828,  1036
  1037,  1038,  1039,  1040,  1041,  1042,  1043,  1044,  1045,  1046,  1047,  1048,  1049,  1050,  1051,  1052
  1053,  1054,  1055,  1056,  1057,  1058,  1059,  1060,  1061,  1062,  1063,  1064,  1065,  1066,  1067,  1068
  1069,  1070,  1071,  1072,  1073,  1074,  1075,  1076,  1077,  1078,  1079,  1080,  1081,  1082,  1083,  1084
  1085,  1086,  1087,  1088,  1089,  1090,  1091,  1092,  1093,  1094,  1095,  1096,  1097,  1098,  1099,  1100
  1101,  1102,  1103,  1104,  1312,  1313,  1314,  1315,  1316,  1317,  1318,  1319,  1320,  1321,  1322,  1323
  1324,  1325,  1326,  1327,  1328,  1329,  1330,  1331,  1332,  1333,  1334,  1335,  1336,  1337,  1338,  1339
  1340,  1341,  1342,  1343,  1344,  1345,  1346,  1347,  1348,  1349,  1350,  1351,  1352,  1353,  1354,  1355
** ... 278 like lines cut
*Nset, nset=sheetPerim, instance=SqrSheet-1
     1,     2,     3,     4,     5,     6,     7,     8,     9,    10,    11,    12,    13,    14,    15,    16
    17,    18,    19,    20,    21,    22,    23,    24,    25,    26,    27,    28,    29,    30,    31,    32
    33,    34,    35,    36,    37,    38,    39,    40,    41,    42,    43,    44,    45,    46,    47,    48
    49,    50,    51,    52,    53,    54,    55,    56,    57,    58,    59,    60,    61,    62,    63,    64
    65,    66,    67,    68,    69,    70,    71,    72,    73,    74,    75,    76,    77,    78,    79,    80
    81,    82,    83,    84,    85,    86,    87,    88,    89,    90,    91,    92,    93,    94,    95,    96
    97,    98,    99,   100,   101,   102,   103,   104,   105,   106,   107,   108,   109,   110,   111,   112
   113,   114,   115,   116,   117,   118,   119,   120,   121,   122,   123,   124,   125,   126,   127,   128
   129,   130,   131,   132,   133,   134,   135,   136,   137,   138,   139,   140,   141,   142,   143,   144
   145,   146,   147,   148,   149,   150,   151,   152,   153,   154,   155,   156,   157,   158,   159,   160
   161,   162,   163,   164,   165,   166,   167,   168,   169,   170,   171,   172,   173,   174,   175,   176
   177,   178,   179,   180,   181,   182,   183,   184,   185,   186,   187,   188,   189,   190,   191,   192
   193,   194,   195,   196,   197,   198,   199,   200,   201,   202,   203,   204,   205,   206,   207,   208
   209,   210,   211,   212,   213,   214,   215,   216,   217,   218,   219,   220,   221,   222,   223,   224
   225,   226,   227,   228,   229,   230,   231,   232,   233,   234,   235,   236,   237,   238,   239,   240
   241,   242,   243,   244,   245,   246,   247,   248,   249,   250,   251,   252,   253,   254,   255,   256
   257,   258,   259,   260,   261,   262,   263,   264,   265,   266,   267,   268,   269,   270,   271,   272
   273,   274,   275,   276,   277,   345,   346,   414,   415,   483,   484,   552,   553,   621,   622,   690
   691,   759,   760,   828,   829,   897,   898,   966,   967,  1035,  1036,  1104,  1105,  1173,  1174,  1242
  1243,  1311,  1312,  1380,  1381,  1449,  1450,  1518,  1519,  1587,  1588,  1656,  1657,  1725,  1726,  1794
** ... 48 like lines cut
*Elset, elset=sheetPerim, instance=SqrSheet-1
     1,     2,     3,     4,     5,     6,     7,     8,     9,    10,    11,    12,    13,    14,    15,    16
    17,    18,    19,    20,    21,    22,    23,    24,    25,    26,    27,    28,    29,    30,    31,    32
    33,    34,    35,    36,    37,    38,    39,    40,    41,    42,    43,    44,    45,    46,    47,    48
    49,    50,    51,    52,    53,    54,    55,    56,    57,    58,    59,    60,    61,    62,    63,    64
    65,    66,    67,    68,    69,    70,    71,    72,    73,    74,    75,    76,    77,    78,    79,    80
    81,    82,    83,    84,    85,    86,    87,    88,    89,    90,    91,    92,    93,    94,    95,    96
    97,    98,    99,   100,   101,   102,   103,   104,   105,   106,   107,   108,   109,   110,   111,   112
   113,   114,   115,   116,   117,   118,   119,   120,   121,   122,   123,   124,   125,   126,   127,   128
   129,   130,   131,   132,   133,   134,   135,   136,   137,   138,   139,   140,   141,   142,   143,   144
   145,   146,   147,   148,   149,   150,   151,   152,   153,   154,   155,   156,   157,   158,   159,   160
   161,   162,   163,   164,   165,   166,   167,   168,   169,   170,   171,   172,   173,   174,   175,   176
   177,   178,   179,   180,   181,   182,   183,   184,   185,   186,   187,   188,   189,   190,   191,   192
   193,   194,   195,   196,   197,   198,   199,   200,   201,   202,   203,   204,   205,   272,   273,   340
   341,   408,   409,   476,   477,   544,   545,   612,   613,   680,   681,   748,   749,   816,   817,   884
   885,   952,   953,  1020,  1021,  1088,  1089,  1156,  1157,  1224,  1225,  1292,  1293,  1360,  1361,  1428
  1429,  1496,  1497,  1564,  1565,  1632,  1633,  1700,  1701,  1768,  1769,  1836,  1837,  1904,  1905,  1972
  1973,  2040,  2041,  2108,  2109,  2176,  2177,  2244,  2245,  2312,  2313,  2380,  2381,  2448,  2449,  2516
  2517,  2584,  2585,  2652,  2653,  2720,  2721,  2788,  2789,  2856,  2857,  2924,  2925,  2992,  2993,  3060
  3061,  3128,  3129,  3196,  3197,  3264,  3265,  3332,  3333,  3400,  3401,  3468,  3469,  3536,  3537,  3604
  3605,  3672,  3673,  3740,  3741,  3808,  3809,  3876,  3877,  3944,  3945,  4012,  4013,  4080,  4081,  4148
** ... 31 like lines cut
*Elset, elset=sheetTop_ElSet, instance=SqrSheet-1
     1,     2,     3,     4,     5,     6,     7,     8,     9,    10,    11,    12,    13,    14,    15,    16
    17,    18,    19,    20,    21,    22,    23,    24,    25,    26,    27,    28,    29,    30,    31,    32
    33,    34,    35,    36,    37,    38,    39,    40,    41,    42,    43,    44,    45,    46,    47,    48
    49,    50,    51,    52,    53,    54,    55,    56,    57,    58,    59,    60,    61,    62,    63,    64
    65,    66,    67,    68,   205,   206,   207,   208,   209,   210,   211,   212,   213,   214,   215,   216
   217,   218,   219,   220,   221,   222,   223,   224,   225,   226,   227,   228,   229,   230,   231,   232
   233,   234,   235,   236,   237,   238,   239,   240,   241,   242,   243,   244,   245,   246,   247,   248
   249,   250,   251,   252,   253,   254,   255,   256,   257,   258,   259,   260,   261,   262,   263,   264
   265,   266,   267,   268,   269,   270,   271,   272,   409,   410,   411,   412,   413,   414,   415,   416
   417,   418,   419,   420,   421,   422,   423,   424,   425,   426,   427,   428,   429,   430,   431,   432
   433,   434,   435,   436,   437,   438,   439,   440,   441,   442,   443,   444,   445,   446,   447,   448
   449,   450,   451,   452,   453,   454,   455,   456,   457,   458,   459,   460,   461,   462,   463,   464
   465,   466,   467,   468,   469,   470,   471,   472,   473,   474,   475,   476,   613,   614,   615,   616
   617,   618,   619,   620,   621,   622,   623,   624,   625,   626,   627,   628,   629,   630,   631,   632
   633,   634,   635,   636,   637,   638,   639,   640,   641,   642,   643,   644,   645,   646,   647,   648
   649,   650,   651,   652,   653,   654,   655,   656,   657,   658,   659,   660,   661,   662,   663,   664
   665,   666,   667,   668,   669,   670,   671,   672,   673,   674,   675,   676,   677,   678,   679,   680
   817,   818,   819,   820,   821,   822,   823,   824,   825,   826,   827,   828,   829,   830,   831,   832
   833,   834,   835,   836,   837,   838,   839,   840,   841,   842,   843,   844,   845,   846,   847,   848
   849,   850,   851,   852,   853,   854,   855,   856,   857,   858,   859,   860,   861,   862,   863,   864
** ... 269 like lines cut
*Nset, nset=sheetTop_NSet, instance=SqrSheet-1
     1,     2,     3,     4,     5,     6,     7,     8,     9,    10,    11,    12,    13,    14,    15,    16
    17,    18,    19,    20,    21,    22,    23,    24,    25,    26,    27,    28,    29,    30,    31,    32
    33,    34,    35,    36,    37,    38,    39,    40,    41,    42,    43,    44,    45,    46,    47,    48
    49,    50,    51,    52,    53,    54,    55,    56,    57,    58,    59,    60,    61,    62,    63,    64
    65,    66,    67,    68,    69,   277,   278,   279,   280,   281,   282,   283,   284,   285,   286,   287
   288,   289,   290,   291,   292,   293,   294,   295,   296,   297,   298,   299,   300,   301,   302,   303
   304,   305,   306,   307,   308,   309,   310,   311,   312,   313,   314,   315,   316,   317,   318,   319
   320,   321,   322,   323,   324,   325,   326,   327,   328,   329,   330,   331,   332,   333,   334,   335
   336,   337,   338,   339,   340,   341,   342,   343,   344,   345,   553,   554,   555,   556,   557,   558
   559,   560,   561,   562,   563,   564,   565,   566,   567,   568,   569,   570,   571,   572,   573,   574
   575,   576,   577,   578,   579,   580,   581,   582,   583,   584,   585,   586,   587,   588,   589,   590
   591,   592,   593,   594,   595,   596,   597,   598,   599,   600,   601,   602,   603,   604,   605,   606
   607,   608,   609,   610,   611,   612,   613,   614,   615,   616,   617,   618,   619,   620,   621,   829
   830,   831,   832,   833,   834,   835,   836,   837,   838,   839,   840,   841,   842,   843,   844,   845
   846,   847,   848,   849,   850,   851,   852,   853,   854,   855,   856,   857,   858,   859,   860,   861
   862,   863,   864,   865,   866,   867,   868,   869,   870,   871,   872,   873,   874,   875,   876,   877
   878,   879,   880,   881,   882,   883,   884,   885,   886,   887,   888,   889,   890,   891,   892,   893
   894,   895,   896,   897,  1105,  1106,  1107,  1108,  1109,  1110,  1111,  1112,  1113,  1114,  1115,  1116
  1117,  1118,  1119,  1120,  1121,  1122,  1123,  1124,  1125,  1126,  1127,  1128,  1129,  1130,  1131,  1132
  1133,  1134,  1135,  1136,  1137,  1138,  1139,  1140,  1141,  1142,  1143,  1144,  1145,  1146,  1147,  1148
** ... 278 like lines cut
*Elset, elset=_rod1_surf_S3, internal, instance=rod1-1
  100,  113,  180,  254,  421,  433,  446,  492,  515,  540,  601,  618,  666,  699,  722,  751
  775,  803,  876,  896,  897,  923,  924,  982, 1033, 1072, 1091, 1114, 1164, 1165, 1173, 1174
 1186, 1197, 1202, 1205, 1225, 1241, 1248, 1278, 1323, 1327, 1343, 1351, 1359, 1377, 1378, 1380
 1393, 1425, 1426, 1427, 1435, 1438, 1456, 1466, 1499, 1504, 1513, 1520, 1524, 1533, 1537, 1538
 1548, 1550, 1551, 1565, 1578, 1580, 1581, 1583, 1584, 1586, 1592, 1593, 1594, 1602, 1606, 1620
 1621, 1626, 1631, 1641, 1649, 1652, 1660, 1673, 1677, 1688, 1690, 1708, 1711, 1716, 1722, 1724
 1729, 1731, 1739, 1748, 1749, 1750, 1754, 1765, 1769, 1777, 1778, 1780, 1781, 1784, 1791, 1795
 1799, 1800, 1814, 1819, 1827, 1831, 1841, 1850, 1852, 1858, 1860, 1861, 1866, 1868, 1877, 1883
 1892, 1914, 1916, 1917, 1925, 1940, 1949, 1955, 1956, 1957, 1959, 1965, 1994, 2003, 2025, 2028
 2041, 2064, 2071, 2075, 2082, 2084, 2089, 2093, 2095, 2110, 2131, 2136, 2147, 2151, 2153, 2175
 2196, 2205, 2213, 2215, 2224, 2226, 2229, 2230, 2232, 2247, 2258, 2265, 2269, 2283, 2300, 2305
 2306, 2314, 2318, 2321, 2325, 2326, 2330, 2331, 2333, 2339, 2341, 2350, 2353, 2354, 2355, 2358
 2364, 2369, 2372, 2381, 2384, 2387, 2388, 2389, 2399, 2404, 2410, 2412, 2415, 2418, 2420, 2421
 2423, 2424, 2426, 2429, 2434, 2437, 2441, 2443, 2448, 2457, 2471, 2472, 2479, 2482, 2484, 2497
 2499, 2505, 2508, 2510, 2516, 2523, 2535, 2549, 2554, 2560, 2563, 2565, 2579, 2580, 2586, 2591
 2594, 2604, 2605, 2607, 2609, 2624, 2630, 2640, 2645, 2648, 2654, 2658, 2659, 2667, 2668, 2669
 2676, 2677, 2678, 2681, 2695, 2705, 2706, 2709, 2715, 2720, 2726, 2730, 2738, 2751, 2754, 2762
 2785, 2789, 2793, 2794
*Elset, elset=_rod1_surf_S1, internal, instance=rod1-1
  358, 1170, 1314, 1573, 1632, 1697, 1699, 2303, 2626, 2685
*Elset, elset=_rod1_surf_S2, internal, instance=rod1-1
   99,  360, 1696, 1812, 1893, 1992, 2123, 2288, 2392, 2450, 2452, 2453, 2461, 2572, 2601, 2635
 2643, 2686
*Elset, elset=_rod1_surf_S4, internal, instance=rod1-1
  172,  457,  490,  700, 1129, 1138, 1139, 1216, 1597, 1617, 1630, 1714, 1728, 1758, 1768, 1832
 1924, 2004, 2066, 2120, 2165, 2176, 2245, 2336, 2393, 2501, 2550, 2595, 2602, 2661, 2690, 2701
*Surface, type=ELEMENT, name=rod1_surf
_rod1_surf_S3, S3
_rod1_surf_S1, S1
_rod1_surf_S2, S2
_rod1_surf_S4, S4
*Elset, elset=_rod2_surf_S1, internal, instance=rod2-1, generate
 193,  288,    1
*Surface, type=ELEMENT, name=rod2_surf
_rod2_surf_S1, S1
*Elset, elset=_sheetBot_surf_S5, internal, instance=SqrSheet-1
   137,   138,   139,   140,   141,   142,   143,   144,   145,   146,   147,   148,   149,   150,   151,   152
   153,   154,   155,   156,   157,   158,   159,   160,   161,   162,   163,   164,   165,   166,   167,   168
   169,   170,   171,   172,   173,   174,   175,   176,   177,   178,   179,   180,   181,   182,   183,   184
   185,   186,   187,   188,   189,   190,   191,   192,   193,   194,   195,   196,   197,   198,   199,   200
   201,   202,   203,   204,   341,   342,   343,   344,   345,   346,   347,   348,   349,   350,   351,   352
   353,   354,   355,   356,   357,   358,   359,   360,   361,   362,   363,   364,   365,   366,   367,   368
   369,   370,   371,   372,   373,   374,   375,   376,   377,   378,   379,   380,   381,   382,   383,   384
   385,   386,   387,   388,   389,   390,   391,   392,   393,   394,   395,   396,   397,   398,   399,   400
   401,   402,   403,   404,   405,   406,   407,   408,   545,   546,   547,   548,   549,   550,   551,   552
   553,   554,   555,   556,   557,   558,   559,   560,   561,   562,   563,   564,   565,   566,   567,   568
   569,   570,   571,   572,   573,   574,   575,   576,   577,   578,   579,   580,   581,   582,   583,   584
   585,   586,   587,   588,   589,   590,   591,   592,   593,   594,   595,   596,   597,   598,   599,   600
   601,   602,   603,   604,   605,   606,   607,   608,   609,   610,   611,   612,   749,   750,   751,   752
   753,   754,   755,   756,   757,   758,   759,   760,   761,   762,   763,   764,   765,   766,   767,   768
   769,   770,   771,   772,   773,   774,   775,   776,   777,   778,   779,   780,   781,   782,   783,   784
   785,   786,   787,   788,   789,   790,   791,   792,   793,   794,   795,   796,   797,   798,   799,   800
   801,   802,   803,   804,   805,   806,   807,   808,   809,   810,   811,   812,   813,   814,   815,   816
   953,   954,   955,   956,   957,   958,   959,   960,   961,   962,   963,   964,   965,   966,   967,   968
   969,   970,   971,   972,   973,   974,   975,   976,   977,   978,   979,   980,   981,   982,   983,   984
   985,   986,   987,   988,   989,   990,   991,   992,   993,   994,   995,   996,   997,   998,   999,  1000
** ... 269 like lines cut
*Surface, type=ELEMENT, name=sheetBot_surf
_sheetBot_surf_S5, S5
*Elset, elset=_sheetTop_surf_S3, internal, instance=SqrSheet-1
     1,     2,     3,     4,     5,     6,     7,     8,     9,    10,    11,    12,    13,    14,    15,    16
    17,    18,    19,    20,    21,    22,    23,    24,    25,    26,    27,    28,    29,    30,    31,    32
    33,    34,    35,    36,    37,    38,    39,    40,    41,    42,    43,    44,    45,    46,    47,    48
    49,    50,    51,    52,    53,    54,    55,    56,    57,    58,    59,    60,    61,    62,    63,    64
    65,    66,    67,    68,   205,   206,   207,   208,   209,   210,   211,   212,   213,   214,   215,   216
   217,   218,   219,   220,   221,   222,   223,   224,   225,   226,   227,   228,   229,   230,   231,   232
   233,   234,   235,   236,   237,   238,   239,   240,   241,   242,   243,   244,   245,   246,   247,   248
   249,   250,   251,   252,   253,   254,   255,   256,   257,   258,   259,   260,   261,   262,   263,   264
   265,   266,   267,   268,   269,   270,   271,   272,   409,   410,   411,   412,   413,   414,   415,   416
   417,   418,   419,   420,   421,   422,   423,   424,   425,   426,   427,   428,   429,   430,   431,   432
   433,   434,   435,   436,   437,   438,   439,   440,   441,   442,   443,   444,   445,   446,   447,   448
   449,   450,   451,   452,   453,   454,   455,   456,   457,   458,   459,   460,   461,   462,   463,   464
   465,   466,   467,   468,   469,   470,   471,   472,   473,   474,   475,   476,   613,   614,   615,   616
   617,   618,   619,   620,   621,   622,   623,   624,   625,   626,   627,   628,   629,   630,   631,   632
   633,   634,   635,   636,   637,   638,   639,   640,   641,   642,   643,   644,   645,   646,   647,   648
   649,   650,   651,   652,   653,   654,   655,   656,   657,   658,   659,   660,   661,   662,   663,   664
   665,   666,   667,   668,   669,   670,   671,   672,   673,   674,   675,   676,   677,   678,   679,   680
   817,   818,   819,   820,   821,   822,   823,   824,   825,   826,   827,   828,   829,   830,   831,   832
   833,   834,   835,   836,   837,   838,   839,   840,   841,   842,   843,   844,   845,   846,   847,   848
   849,   850,   851,   852,   853,   854,   855,   856,   857,   858,   859,   860,   861,   862,   863,   864
** ... 269 like lines cut
*Surface, type=ELEMENT, name=sheetTop_surf
_sheetTop_surf_S3, S3
*End Assembly
*Amplitude, name=smoothStep, definition=SMOOTH STEP
             0.,              0.,              1.,              1.
** 
** MATERIALS
** 
*Material, name=aluminum_J2
*Damping, alpha=1.
*Density
 2.7e-09,
*Elastic
69000., 0.33
*Plastic
    118.,    0.
    120., 0.011
 128.703, 0.014
 135.129, 0.017
 141.317,  0.02
 147.275, 0.023
 153.012, 0.026
 162.105, 0.031
 170.643, 0.036
 178.659, 0.041
 186.186, 0.046
 193.254, 0.051
  199.89, 0.056
 206.121, 0.061
 211.972, 0.066
 217.465, 0.071
 222.624, 0.076
 227.467, 0.081
 232.014, 0.086
 240.294, 0.096
** ... 18 like lines cut
*Material, name=steel_J2
*Damping, alpha=1.
*Density
 8.05e-09,
*Elastic
201000., 0.29
*Plastic
  341.62,          0.
 361.429, 0.000516825
 379.052,  0.00119394
 398.299,  0.00209043
 416.132,  0.00314734
 428.199,  0.00392398
 439.574,  0.00480765
 450.354,  0.00601506
 464.023,   0.0076578
 475.448,  0.00929489
  485.38,   0.0109273
 495.858,    0.012827
 504.894,   0.0148287
 512.509,   0.0169854
 520.375,   0.0195657
 525.074,   0.0219219
 529.845,   0.0243791
 534.029,    0.027148
 538.255,   0.0299622
 541.127,   0.0323973
** ... 9 like lines cut
** 
** INTERACTION PROPERTIES
** 
*Surface Interaction, name=IntProp1
*Surface Behavior, pressure-overclosure=HARD
** ----------------------------------------------------------------
** 
** STEP: dynExplicit
** 
*Step, name=dynExplicit, nlgeom=YES
*Dynamic, Explicit
, 1.
*Bulk Viscosity
0.06, 1.2
** Mass Scaling: Semi-Automatic
**               Whole Model
*Fixed Mass Scaling, factor=100000.
** 
** BOUNDARY CONDITIONS
** 
** Name: fixedBackRod1 Type: Symmetry/Antisymmetry/Encastre
*Boundary
rod1Back, ENCASTRE
** Name: fixedCenterBackRod2 Type: Displacement/Rotation
*Boundary
fixedCentBackRod2Node, 1, 1
fixedCentBackRod2Node, 2, 2
fixedCentBackRod2Node, 4, 4
fixedCentBackRod2Node, 5, 5
fixedCentBackRod2Node, 6, 6
** Name: fixedSheetPerim Type: Symmetry/Antisymmetry/Encastre
*Boundary
sheetPerim, ENCASTRE
** Name: moveRod2 Type: Displacement/Rotation
*Boundary, amplitude=smoothStep
rod2Back, 3, 3, 1.
** 
** INTERACTIONS
** 
** Interaction: rod1_sheet_contact
*Contact Pair, interaction=IntProp1, mechanical constraint=PENALTY, cpset=rod1_sheet_contact
rod1_surf, sheetTop_surf
** Interaction: rod2_sheet_contact
*Contact Pair, interaction=IntProp1, mechanical constraint=PENALTY, cpset=rod2_sheet_contact
rod2_surf, sheetBot_surf
** 
** OUTPUT REQUESTS
** 
*Restart, write, number interval=1, time marks=NO
** 
** FIELD OUTPUT: F-Output-1
** 
*Output, field, number interval=5
*Node Output
A, COORD, RF, U, V
*Element Output, directions=YES
LE, PE, PEEQ, S, COORD
*Contact Output
CSTRESS, 
** 
** HISTORY OUTPUT: H-Output-2
** 
*Output, history
*Contact Output, cpset=rod1_sheet_contact
CFN1, CFN2, CFN3, CFNM
** 
** HISTORY OUTPUT: H-Output-3
** 
*Contact Output, cpset=rod2_sheet_contact
CFN1, CFN2, CFN3, CFNM
** 
** HISTORY OUTPUT: H-Output-1
** 
*Output, history, variable=PRESELECT
*End Step
